33

Ca        0.0543229101   -0.0327779225   -0.0312034133
O        -0.0185516669   -0.0484139678    2.2858398064
C         1.0434787209   -0.0257675904    2.9763132681
O         1.0901634555   -0.1655757443    4.2124671417
C         2.3567595720    0.2694891044    2.2583307354
H         3.1813848383   -0.1711062371    2.8227574690
H         2.4642612837    1.3532619904    2.3237598206
N         2.4064242959   -0.1242571357    0.8502270661
C         3.1621699355    0.8471709219    0.0690210976
H         3.3717814387    0.4251978609   -0.9140137581
H         4.1171306051    1.1043783631    0.5322440229
C         2.9135246599   -1.4908772679    0.6790680428
H         3.1675513663   -1.6281200022   -0.3694600518
H         3.8300985102   -1.6422492106    1.2577419866
C         1.8857365347   -2.5256403883    1.0987204732
H         1.6057928587   -2.3657791640    2.1374950639
H         2.3346878160   -3.5214088152    1.0354742778
N         0.6721520858   -2.4491709097    0.2765713429
C        -0.4733988078   -3.0819200710    0.9193994109
H        -0.4629159346   -2.8410061379    1.9817988095
H        -0.4545787829   -4.1695199385    0.8260770296
C         0.8821795535   -3.0051556261   -1.0605886033
H        -0.0755632125   -3.3636171923   -1.4422419511
H         1.5607316127   -3.8601559146   -1.0330515005
C         1.3650500362   -2.0163329995   -2.1170904776
O         2.0019819723   -2.4798096395   -3.0807198022
O         1.0363004999   -0.7993647507   -1.9855048119
C         2.3723812082    2.1281769734   -0.1941387098
O         3.0224787299    3.1616039644   -0.4325150320
O         1.1055845485    2.0510657953   -0.2018491460
C        -1.8089339665   -2.5639705026    0.3875425614
O        -2.8042521681   -3.2932486923    0.5467429520
O        -1.8332850611   -1.4099175481   -0.1393823041
